omf/data/Model/public/Demo voltageDrop ABEC Columbia/voltDump.csv
# voltDump.csv run at 2000-01-01 00:00:00 PST on 1689 nodes
node_name,voltA_real,voltA_imag,voltB_real,voltB_imag,voltC_real,voltC_imag
COLOMA SUB,7200.000000,0.000000,-3600.000000,-6235.382907,-3600.000000,6235.382907
nodeCOLOMA4Coloma Bus Regs,7244.995470,0.002581,-3622.495841,-6274.351471,-3622.499872,6274.349427
node948739COLOMA4,7244.994495,0.006137,-3622.492471,-6274.352260,-3622.502119,6274.347052
node824694948739,7244.572479,0.160863,-3622.175191,-6274.071979,-3622.424869,6273.954329
nodeRCMA4-R0001x1824694,7244.150463,0.315590,-3621.857911,-6273.791699,-3622.347619,6273.561605
node984636RCMA4-R0001x1,7244.149489,0.319145,-3621.854541,-6273.792488,-3622.349867,6273.559230
node984637984636,7243.347659,0.613125,-3621.251709,-6273.259955,-3622.203091,6272.813056
node984634984637,7243.287371,0.635229,-3621.206383,-6273.219915,-3622.192056,6272.756952
node12049x1-B984634,7243.287371,0.635229,-3621.206383,-6273.219915,-3622.192056,6272.756952
node984639984638,7243.227083,0.657333,-3621.161057,-6273.179875,-3622.181020,6272.700849
node824697984639,7238.518590,2.383637,-3617.621117,-6270.052742,-3621.319130,6268.319180
nodeT21526824697,0.000000,0.000000,-3617.619573,-6270.051226,0.000000,0.000000
node824701824700,7238.365394,2.439558,-3617.490277,-6269.940712,-3621.264565,6268.074594
node824702824701,7238.279529,2.389091,-3617.438919,-6269.824291,-3621.076278,6267.973440
node824704824702,7238.259560,2.377354,-3617.426976,-6269.797216,-3621.032491,6267.949916
node824705824704,7237.759014,2.083158,-3617.127590,-6269.118546,-3619.934882,6267.360246
node1808-19-005824705,7237.751885,2.084688,-3617.122799,-6269.113307,-3619.932642,6267.353647
node979614824707,7236.739721,1.477795,-3616.505267,-6267.725913,-3617.660848,6266.141794
node979615979614,7236.732202,1.480417,-3616.499233,-6267.720688,-3617.659363,6266.133942
nodeT28934979615,7236.339933,1.636612,-3616.168244,-6267.457212,-3617.597897,6265.713944
nodeT28933979617,7236.688334,1.497983,-3616.462133,-6267.691273,-3617.652575,6266.086924
node824712979839,7236.742438,1.474747,-3616.483130,-6267.705914,-3617.607203,6266.123434
node824713824712,7236.362770,1.639914,-3616.104827,-6267.410115,-3617.384031,6265.045586
node1808-19-008824713,0.000000,0.000000,-3616.084452,-6267.390115,0.000000,0.000000
node824716824715,0.000000,0.000000,0.000000,0.000000,-3617.245971,6264.510163
nodeR7229x1824716,0.000000,0.000000,0.000000,0.000000,-3617.242644,6264.497261
node920601R7229x1,0.000000,0.000000,0.000000,0.000000,-3617.242760,6264.497104
node824717920601,0.000000,0.000000,0.000000,0.000000,-3616.373847,6262.949163
node824718824717,0.000000,0.000000,0.000000,0.000000,-3615.048038,6260.587267
node824720824718,0.000000,0.000000,0.000000,0.000000,-3614.583951,6259.760508
node824721824720,0.000000,0.000000,0.000000,0.000000,-3613.212454,6257.317222
node824722824721,0.000000,0.000000,0.000000,0.000000,-3612.124958,6255.379879
node824723824722,0.000000,0.000000,0.000000,0.000000,-3611.190214,6253.714729
node906386824723,0.000000,0.000000,0.000000,0.000000,-3610.568212,6252.606698
node824726906386,0.000000,0.000000,0.000000,0.000000,-3610.307659,6252.142548
node824727824726,0.000000,0.000000,0.000000,0.000000,-3610.032754,6251.652834
node824728824727,0.000000,0.000000,0.000000,0.000000,-3609.649052,6250.969308
node824729824728,0.000000,0.000000,0.000000,0.000000,-3609.242535,6250.245140
node824730824729,0.000000,0.000000,0.000000,0.000000,-3609.149805,6250.079950
node824731824730,0.000000,0.000000,0.000000,0.000000,-3608.946715,6249.718162
node824732824731,0.000000,0.000000,0.000000,0.000000,-3608.853934,6249.552885
node824733824732,0.000000,0.000000,0.000000,0.000000,-3608.773333,6249.409298
node824734824733,0.000000,0.000000,0.000000,0.000000,-3608.604127,6249.107868
node824738824734,0.000000,0.000000,0.000000,0.000000,-3608.532751,6248.988795
nodeF7974x1824738,0.000000,0.000000,0.000000,0.000000,-3608.531331,6248.983286
node824739F7974x1,0.000000,0.000000,0.000000,0.000000,-3608.531351,6248.983260
node824740824739,0.000000,0.000000,0.000000,0.000000,-3608.496779,6248.849189
node824741824740,0.000000,0.000000,0.000000,0.000000,-3608.473598,6248.759294
node824742824741,0.000000,0.000000,0.000000,0.000000,-3608.462803,6248.717432
nodeFCMA4-F008x1824742,0.000000,0.000000,0.000000,0.000000,-3608.460279,6248.707645
node824743FCMA4-F008x1,0.000000,0.000000,0.000000,0.000000,-3608.460289,6248.707632
node1808-0151824743,0.000000,0.000000,0.000000,0.000000,-3608.450379,6248.669200
node1808-0164824745,0.000000,0.000000,0.000000,0.000000,-3608.458463,6248.700601
nodeF5088x1905282,0.000000,0.000000,0.000000,0.000000,-3608.853789,6249.552321
node905284F5088x1,0.000000,0.000000,0.000000,0.000000,-3608.853794,6249.552315
nodeT5087905284,0.000000,0.000000,0.000000,0.000000,-3608.850939,6249.541249
node824748824747,0.000000,0.000000,0.000000,0.000000,-3608.814671,6249.482934
node824750824748,0.000000,0.000000,0.000000,0.000000,-3608.778513,6249.418519
node824751824750,0.000000,0.000000,0.000000,0.000000,-3608.749114,6249.366145
node824752824751,0.000000,0.000000,0.000000,0.000000,-3608.697666,6249.274490
node824755824752,0.000000,0.000000,0.000000,0.000000,-3608.609469,6249.117368
node824759824755,0.000000,0.000000,0.000000,0.000000,-3608.518626,6248.955531
node900841824759,0.000000,0.000000,0.000000,0.000000,-3608.487504,6248.924052
node824760900841,0.000000,0.000000,0.000000,0.000000,-3608.469140,6248.905478
node900842824760,0.000000,0.000000,0.000000,0.000000,-3608.469140,6248.905478
node949086900842,0.000000,0.000000,0.000000,0.000000,-3608.469140,6248.905478
node824761949086,0.000000,0.000000,0.000000,0.000000,-3608.469140,6248.905478
node914176824761,0.000000,0.000000,0.000000,0.000000,-3608.469140,6248.905478
node1808-29-023914176,0.000000,0.000000,0.000000,0.000000,-3608.469140,6248.905478
node12900x1-Bx1949050,0.000000,0.000000,0.000000,0.000000,-3608.469140,6248.905478
nodeFCMA4-F074x1824798,0.000000,0.000000,0.000000,0.000000,-3608.467909,6248.900707
node824799FCMA4-F074x1,0.000000,0.000000,0.000000,0.000000,-3608.467922,6248.900690
node824800824799,0.000000,0.000000,0.000000,0.000000,-3608.466841,6248.896498
node824802824800,0.000000,0.000000,0.000000,0.000000,-3608.461238,6248.874774
node1808-0088824802,0.000000,0.000000,0.000000,0.000000,-3608.460579,6248.872222
node1808-29-032824805,0.000000,0.000000,0.000000,0.000000,-3608.501173,6248.926420
nodeFCMA4-F056x1824809,0.000000,0.000000,0.000000,0.000000,-3608.517891,6248.952682
node824810FCMA4-F056x1,0.000000,0.000000,0.000000,0.000000,-3608.517902,6248.952668
node1808-0144824810,0.000000,0.000000,0.000000,0.000000,-3608.512507,6248.931736
nodeFCMA4-F107x1824814,0.000000,0.000000,0.000000,0.000000,-3610.032292,6251.651042
node824815FCMA4-F107x1,0.000000,0.000000,0.000000,0.000000,-3610.032296,6251.651036
node824816824815,0.000000,0.000000,0.000000,0.000000,-3610.031520,6251.648027
node1808-29-034824816,0.000000,0.000000,0.000000,0.000000,-3610.029575,6251.640485
node824820824818,0.000000,0.000000,0.000000,0.000000,-3610.031302,6251.647184
node1808-0150824820,0.000000,0.000000,0.000000,0.000000,-3610.030716,6251.644910
node911238911237,0.000000,0.000000,0.000000,0.000000,-3610.567586,6252.604271
nodeT4114911238,0.000000,0.000000,0.000000,0.000000,-3610.563958,6252.590200
nodeF18632x1824822,0.000000,0.000000,0.000000,0.000000,-3612.124958,6255.379879
node824823F18632x1,0.000000,0.000000,0.000000,0.000000,-3612.124958,6255.379879
node900921824823,0.000000,0.000000,0.000000,0.000000,-3612.124958,6255.379879
nodeT18630900921,0.000000,0.000000,0.000000,0.000000,-3612.124958,6255.379879
node910308910307,0.000000,0.000000,0.000000,0.000000,-3612.094302,6255.338030
node1808-20-011910308,0.000000,0.000000,0.000000,0.000000,-3612.061696,6255.298785
node1808-20-008824825,0.000000,0.000000,0.000000,0.000000,-3616.358131,6262.922945
node974368824827,7235.988631,1.805634,-3615.774568,-6267.167140,-3617.339967,6264.636532
nodeT29595974368,7235.906125,1.849062,-3615.695753,-6267.116983,-3617.336241,6264.542863
nodeT29596974371,7235.827744,1.870116,-3615.638450,-6267.059283,-3617.315116,6264.464045
node1808-19-009824830,7238.348853,2.444287,-3617.477825,-6269.928945,-3621.259624,6268.057805
node824834824833,7236.991968,2.943675,-3616.498560,-6269.058959,-3621.068718,6267.010171
node533x1-Bx1824834,7236.937640,2.963605,-3616.458612,-6269.023593,-3621.059807,6266.963587
node533x1-Ax1533x1-Bx1,7236.936762,2.966810,-3616.455639,-6269.024285,-3621.061682,6266.961627
node824835533x1-Ax1,7236.935884,2.970016,-3616.452667,-6269.024978,-3621.063557,6266.959668
node824836824835,7236.239774,2.727078,-3616.451101,-6268.444134,-3620.686633,6266.687365
node824837824836,7233.889585,1.906001,-3616.447094,-6266.485318,-3619.415536,6265.768850
node824838824837,7202.800469,-8.955493,-3616.394088,-6240.573421,-3602.601027,6253.618410
nodeFCMA4-F016x1824838,7202.742176,-8.930331,-3616.343262,-6240.535312,-3602.593573,6253.555155
node824839FCMA4-F016x1,7202.742136,-8.930177,-3616.343108,-6240.535354,-3602.593686,6253.555043
node1808-19-010824839,7201.677908,-8.470820,-3615.415209,-6239.839626,-3602.457596,6252.400238
node824843824842,7199.440534,-10.126932,-3616.411982,-6237.795750,-3600.827177,6252.330888
node824844824843,7193.348441,-12.250937,-3616.444426,-6232.759395,-3597.610908,6249.996406
node824847824844,7165.177299,-22.106404,-3616.697450,-6209.518924,-3582.835558,6239.299024
node824848824847,7156.864265,-24.990620,-3616.841775,-6202.746397,-3578.637784,6236.222634
nodeR7231x1824848,0.000000,0.000000,0.000000,0.000000,-3578.629732,6236.191056
node824849R7231x1,0.000000,0.000000,0.000000,0.000000,-3578.629780,6236.190991
node824850824849,0.000000,0.000000,0.000000,0.000000,-3578.450785,6235.489035
node1807-0244824850,0.000000,0.000000,0.000000,0.000000,-3578.421152,6235.372813
node824853824852,0.000000,0.000000,0.000000,0.000000,-3578.390455,6235.406238
node824855824853,0.000000,0.000000,0.000000,0.000000,-3578.131096,6235.050294
node824857824855,0.000000,0.000000,0.000000,0.000000,-3578.063150,6234.957045
node824858824857,0.000000,0.000000,0.000000,0.000000,-3577.999739,6234.870019
node824859824858,0.000000,0.000000,0.000000,0.000000,-3577.939129,6234.786837
node980396824859,0.000000,0.000000,0.000000,0.000000,-3577.753097,6234.531527
node980393980396,0.000000,0.000000,0.000000,0.000000,-3577.693086,6234.449168
node824860980393,0.000000,0.000000,0.000000,0.000000,-3577.667938,6234.414653
node923236824860,0.000000,0.000000,0.000000,0.000000,-3577.642789,6234.380138
node923237923236,0.000000,0.000000,0.000000,0.000000,-3577.596362,6234.316418
node923238923237,0.000000,0.000000,0.000000,0.000000,-3577.551165,6234.254388
node824862923238,0.000000,0.000000,0.000000,0.000000,-3577.499637,6234.183668
node923239824862,0.000000,0.000000,0.000000,0.000000,-3577.443185,6234.106191
node923240923239,0.000000,0.000000,0.000000,0.000000,-3577.398868,6234.045367
node923241923240,0.000000,0.000000,0.000000,0.000000,-3577.355078,6233.985268
node923242923241,0.000000,0.000000,0.000000,0.000000,-3577.309706,6233.922996
nodeF7815x1923242,0.000000,0.000000,0.000000,0.000000,-3577.259183,6233.861866
node922977F7815x1,0.000000,0.000000,0.000000,0.000000,-3577.259204,6233.861838
node922975922977,0.000000,0.000000,0.000000,0.000000,-3577.257546,6233.855337
node922976922975,0.000000,0.000000,0.000000,0.000000,-3577.253106,6233.837923
nodeT12925922976,0.000000,0.000000,0.000000,0.000000,-3577.235113,6233.767354
node922979922978,0.000000,0.000000,0.000000,0.000000,-3577.232341,6233.756502
node922980922979,0.000000,0.000000,0.000000,0.000000,-3577.232341,6233.756502
node1807-0304922980,0.000000,0.000000,0.000000,0.000000,-3577.232341,6233.756502
node824871922981,0.000000,0.000000,0.000000,0.000000,-3577.231942,6233.754936
node922983824871,0.000000,0.000000,0.000000,0.000000,-3577.204342,6233.712959
node1807-0292922983,0.000000,0.000000,0.000000,0.000000,-3577.156484,6233.640166
node980394980395,0.000000,0.000000,0.000000,0.000000,-3577.688356,6234.430631
node824878980394,0.000000,0.000000,0.000000,0.000000,-3577.682410,6234.422473
node1807-36-005824878,0.000000,0.000000,0.000000,0.000000,-3577.680988,6234.420753
nodeF5402x1824880,0.000000,0.000000,0.000000,0.000000,-3577.682382,6234.422364
node824881F5402x1,0.000000,0.000000,0.000000,0.000000,-3577.682384,6234.422363
node1807-0299824881,0.000000,0.000000,0.000000,0.000000,-3577.681365,6234.418370
node824884824883,0.000000,0.000000,0.000000,0.000000,-3578.428773,6235.458823
node824885824884,0.000000,0.000000,0.000000,0.000000,-3578.284252,6235.260466
node1807-25-007824885,0.000000,0.000000,0.000000,0.000000,-3578.270544,6235.243877
nodeF18666x1824887,0.000000,0.000000,0.000000,0.000000,-3578.284009,6235.259513
node824888F18666x1,0.000000,0.000000,0.000000,0.000000,-3578.284013,6235.259507
node824889824888,0.000000,0.000000,0.000000,0.000000,-3578.277083,6235.232340
node824890824889,0.000000,0.000000,0.000000,0.000000,-3578.269634,6235.203142
node950220824890,0.000000,0.000000,0.000000,0.000000,-3578.267179,6235.193518
nodeT11989950220,0.000000,0.000000,0.000000,0.000000,-3578.266441,6235.190627
nodeR7230x1825629,0.000000,0.000000,0.000000,0.000000,-3578.623677,6236.167373
node972841R7230x1,0.000000,0.000000,0.000000,0.000000,-3578.623890,6236.167087
node825630972841,0.000000,0.000000,0.000000,0.000000,-3578.284413,6234.837277
node825631825630,0.000000,0.000000,0.000000,0.000000,-3577.691004,6232.512755
node825632825631,0.000000,0.000000,0.000000,0.000000,-3577.578155,6232.070703
node825633825632,0.000000,0.000000,0.000000,0.000000,-3577.470891,6231.650523
node825634825633,0.000000,0.000000,0.000000,0.000000,-3577.372148,6231.263727
node825635825634,0.000000,0.000000,0.000000,0.000000,-3577.274660,6230.881844
node825636825635,0.000000,0.000000,0.000000,0.000000,-3577.168481,6230.465917
node825637825636,0.000000,0.000000,0.000000,0.000000,-3576.966858,6229.676110
node902721825637,0.000000,0.000000,0.000000,0.000000,-3576.966375,6229.674220
node825638902721,0.000000,0.000000,0.000000,0.000000,-3576.966127,6229.673250
node825639825638,0.000000,0.000000,0.000000,0.000000,-3576.961969,6229.656964
nodeT3285825639,0.000000,0.000000,0.000000,0.000000,-3576.961504,6229.655146
node825641902741,0.000000,0.000000,0.000000,0.000000,-3576.949659,6229.608757
nodeT3286825641,0.000000,0.000000,0.000000,0.000000,-3576.949550,6229.608331
nodeT3287825644,0.000000,0.000000,0.000000,0.000000,-3576.946233,6229.595337
nodeT3288902742,0.000000,0.000000,0.000000,0.000000,-3576.948484,6229.604158
node825647825646,0.000000,0.000000,0.000000,0.000000,-3576.933808,6229.546645
node825648825647,0.000000,0.000000,0.000000,0.000000,-3576.769276,6228.902125
node914744825648,0.000000,0.000000,0.000000,0.000000,-3576.677990,6228.544531
node825649914744,0.000000,0.000000,0.000000,0.000000,-3576.604314,6228.255924
node825652825649,0.000000,0.000000,0.000000,0.000000,-3576.531770,6227.971672
node825654825652,0.000000,0.000000,0.000000,0.000000,-3576.528061,6227.966586
node825656825654,0.000000,0.000000,0.000000,0.000000,-3576.525167,6227.962619
node825657825656,0.000000,0.000000,0.000000,0.000000,-3576.524565,6227.961793
node825658825657,0.000000,0.000000,0.000000,0.000000,-3576.523731,6227.960650
node825659825658,0.000000,0.000000,0.000000,0.000000,-3576.522502,6227.958964
node1808-32-008825659,0.000000,0.000000,0.000000,0.000000,-3576.521296,6227.957506
node825663825662,0.000000,0.000000,0.000000,0.000000,-3576.346164,6227.724328
node825664825663,0.000000,0.000000,0.000000,0.000000,-3576.304046,6227.668199
node825666825664,0.000000,0.000000,0.000000,0.000000,-3576.082925,6227.373522
node825667825666,0.000000,0.000000,0.000000,0.000000,-3575.840610,6227.050594
node1808-32-014825667,0.000000,0.000000,0.000000,0.000000,-3575.836306,6227.045391
node825676825675,0.000000,0.000000,0.000000,0.000000,-3575.511715,6226.612278
node825678825676,0.000000,0.000000,0.000000,0.000000,-3575.225530,6226.230865
node910316825678,0.000000,0.000000,0.000000,0.000000,-3575.070329,6226.024019
node825679910316,0.000000,0.000000,0.000000,0.000000,-3575.006379,6225.938787
node914175825679,0.000000,0.000000,0.000000,0.000000,-3574.881879,6225.772858
node825681914175,0.000000,0.000000,0.000000,0.000000,-3574.716560,6225.552526
node825682825681,0.000000,0.000000,0.000000,0.000000,-3574.622013,6225.426524
node825684825682,0.000000,0.000000,0.000000,0.000000,-3573.404068,6223.803366
node957975825684,0.000000,0.000000,0.000000,0.000000,-3573.027723,6223.301809
node825685957975,0.000000,0.000000,0.000000,0.000000,-3572.844012,6223.056971
node825686825685,0.000000,0.000000,0.000000,0.000000,-3572.773776,6222.963364
node914182825686,0.000000,0.000000,0.000000,0.000000,-3572.564783,6222.684824
node825687914182,0.000000,0.000000,0.000000,0.000000,-3572.483841,6222.576947
nodeFCMA4-F011x1825687,0.000000,0.000000,0.000000,0.000000,-3572.483755,6222.576816
node825688FCMA4-F011x1,0.000000,0.000000,0.000000,0.000000,-3572.483756,6222.576816
node1808-33-002825688,0.000000,0.000000,0.000000,0.000000,-3572.483266,6222.576072
node825692825690,0.000000,0.000000,0.000000,0.000000,-3572.350763,6222.399584
node825693825692,0.000000,0.000000,0.000000,0.000000,-3572.203609,6222.203462
node825694825693,0.000000,0.000000,0.000000,0.000000,-3572.181201,6222.172723
node1808-33-003825694,0.000000,0.000000,0.000000,0.000000,-3572.174083,6222.164116
node825698825696,0.000000,0.000000,0.000000,0.000000,-3571.988400,6221.916690
node825701825698,0.000000,0.000000,0.000000,0.000000,-3571.918318,6221.823302
node825702825701,0.000000,0.000000,0.000000,0.000000,-3571.762962,6221.616285
nodeFCMA4-F047x1825702,0.000000,0.000000,0.000000,0.000000,-3571.762711,6221.615302
node825703FCMA4-F047x1,0.000000,0.000000,0.000000,0.000000,-3571.762714,6221.615298
node825704825703,0.000000,0.000000,0.000000,0.000000,-3571.762139,6221.613050
node1808-27-003825704,0.000000,0.000000,0.000000,0.000000,-3571.762139,6221.613050
node912858954735,0.000000,0.000000,0.000000,0.000000,-3571.727576,6221.569131
nodeF7633x1912858,0.000000,0.000000,0.000000,0.000000,-3571.727137,6221.567412
node912863F7633x1,0.000000,0.000000,0.000000,0.000000,-3571.727142,6221.567405
nodeT4107912863,0.000000,0.000000,0.000000,0.000000,-3571.723007,6221.551203
node825707954736,0.000000,0.000000,0.000000,0.000000,-3571.707693,6221.542635
node825709825707,0.000000,0.000000,0.000000,0.000000,-3571.671606,6221.494546
node825710825709,0.000000,0.000000,0.000000,0.000000,-3571.633706,6221.444040
node825711825710,0.000000,0.000000,0.000000,0.000000,-3571.509776,6221.278884
node825713825711,0.000000,0.000000,0.000000,0.000000,-3571.484549,6221.245263
node825714825713,0.000000,0.000000,0.000000,0.000000,-3571.484549,6221.245263
nodeNO448x1-A825714,0.000000,0.000000,0.000000,0.000000,-3571.484549,6221.245263
nodeFCMA4-F099x1825715,0.000000,0.000000,0.000000,0.000000,-3571.509351,6221.277221
node825716FCMA4-F099x1,0.000000,0.000000,0.000000,0.000000,-3571.509356,6221.277215
node1808-0124825716,0.000000,0.000000,0.000000,0.000000,-3571.506605,6221.266439
node825721825720,0.000000,0.000000,0.000000,0.000000,-3572.784794,6222.975731
node825723825721,0.000000,0.000000,0.000000,0.000000,-3572.739325,6222.913356
node825724825723,0.000000,0.000000,0.000000,0.000000,-3572.680834,6222.833115
node825727825724,0.000000,0.000000,0.000000,0.000000,-3572.623847,6222.754953
node825728825727,0.000000,0.000000,0.000000,0.000000,-3572.603907,6222.727605
node1808-33-009825728,0.000000,0.000000,0.000000,0.000000,-3572.593941,6222.715554
nodeF18558x1825732,0.000000,0.000000,0.000000,0.000000,-3572.783817,6222.971905
node825733F18558x1,0.000000,0.000000,0.000000,0.000000,-3572.783824,6222.971896
node1808-0136825733,0.000000,0.000000,0.000000,0.000000,-3572.781891,6222.964319
nodeF21023x1957977,0.000000,0.000000,0.000000,0.000000,-3573.027580,6223.301246
node957978F21023x1,0.000000,0.000000,0.000000,0.000000,-3573.027586,6223.301237
nodeT21024957978,0.000000,0.000000,0.000000,0.000000,-3573.026580,6223.297293
nodeF2626x1910318,0.000000,0.000000,0.000000,0.000000,-3575.070322,6226.023989
node910320F2626x1,0.000000,0.000000,0.000000,0.000000,-3575.070322,6226.023989
nodeT2627910320,0.000000,0.000000,0.000000,0.000000,-3575.070027,6226.022834
nodeFCMA4-F110x1825735,0.000000,0.000000,0.000000,0.000000,-3575.511153,6226.610077
node825736FCMA4-F110x1,0.000000,0.000000,0.000000,0.000000,-3575.511160,6226.610068
node825737825736,0.000000,0.000000,0.000000,0.000000,-3575.503727,6226.580966
node825738825737,0.000000,0.000000,0.000000,0.000000,-3575.501829,6226.573537
node1808-0133825738,0.000000,0.000000,0.000000,0.000000,-3575.501641,6226.572799
nodeT29059825740,0.000000,0.000000,0.000000,0.000000,-3575.500503,6226.568344
node1808-0137825742,0.000000,0.000000,0.000000,0.000000,-3575.503653,6226.580676
node1808-0160916883,0.000000,0.000000,0.000000,0.000000,-3575.503137,6226.578656
nodeF14064x1825745,0.000000,0.000000,0.000000,0.000000,-3576.345419,6227.721410
node825746F14064x1,0.000000,0.000000,0.000000,0.000000,-3576.345430,6227.721396
node929700825746,0.000000,0.000000,0.000000,0.000000,-3576.345281,6227.720812
node1808-32-024929700,0.000000,0.000000,0.000000,0.000000,-3576.342895,6227.711466
nodeT14065929701,0.000000,0.000000,0.000000,0.000000,-3576.345092,6227.720073
node1808-0082825749,0.000000,0.000000,0.000000,0.000000,-3576.604203,6228.255488
node899863899862,0.000000,0.000000,0.000000,0.000000,-3576.536828,6227.991684
node899864899863,0.000000,0.000000,0.000000,0.000000,-3576.506003,6227.870990
node933796899864,0.000000,0.000000,0.000000,0.000000,-3576.491366,6227.813684
node899881933796,0.000000,0.000000,0.000000,0.000000,-3576.467534,6227.720383
node899882899881,0.000000,0.000000,0.000000,0.000000,-3576.439411,6227.610284
node899901899882,0.000000,0.000000,0.000000,0.000000,-3576.428965,6227.569386
node824783899901,0.000000,0.000000,0.000000,0.000000,-3576.411375,6227.500518
node1808-0103824783,0.000000,0.000000,0.000000,0.000000,-3576.411161,6227.499680
node930246899902,0.000000,0.000000,0.000000,0.000000,-3576.390807,6227.420001
node824769930246,0.000000,0.000000,0.000000,0.000000,-3576.390085,6227.417176
node910323824769,0.000000,0.000000,0.000000,0.000000,-3576.383690,6227.392140
node923318910323,0.000000,0.000000,0.000000,0.000000,-3576.381265,6227.382647
nodeT4170923318,0.000000,0.000000,0.000000,0.000000,-3576.381265,6227.382647
node930243824788,0.000000,0.000000,0.000000,0.000000,-3576.378828,6227.373114
node911160930243,0.000000,0.000000,0.000000,0.000000,-3576.369996,6227.338547
node911157911160,0.000000,0.000000,0.000000,0.000000,-3576.368143,6227.331294
nodeT4037911157,0.000000,0.000000,0.000000,0.000000,-3576.366714,6227.325699
node824796911159,0.000000,0.000000,0.000000,0.000000,-3576.367239,6227.327753
node949119824796,0.000000,0.000000,0.000000,0.000000,-3576.367239,6227.327753
node12900x1-Ax1949119,0.000000,0.000000,0.000000,0.000000,-3576.367239,6227.327753
node824792930244,0.000000,0.000000,0.000000,0.000000,-3576.378779,6227.372922
node945215824792,0.000000,0.000000,0.000000,0.000000,-3576.378169,6227.370537
node1808-0045945215,0.000000,0.000000,0.000000,0.000000,-3576.378169,6227.370537
node824767930245,0.000000,0.000000,0.000000,0.000000,-3576.389106,6227.413343
node824765824767,0.000000,0.000000,0.000000,0.000000,-3576.382544,6227.404346
node1808-29-026824765,0.000000,0.000000,0.000000,0.000000,-3576.377839,6227.398659
node824786824785,0.000000,0.000000,0.000000,0.000000,-3576.380330,6227.401309
node1808-29-029824786,0.000000,0.000000,0.000000,0.000000,-3576.373280,6227.392785
node914746914745,0.000000,0.000000,0.000000,0.000000,-3576.677277,6228.541737
nodeT4140914746,0.000000,0.000000,0.000000,0.000000,-3576.667580,6228.503743
node1808-0080825759,0.000000,0.000000,0.000000,0.000000,-3576.769201,6228.901832
nodeFCMA4-F021x1825762,0.000000,0.000000,0.000000,0.000000,-3576.933201,6229.544267
node825764FCMA4-F021x1,0.000000,0.000000,0.000000,0.000000,-3576.933206,6229.544261
node825765825764,0.000000,0.000000,0.000000,0.000000,-3576.924216,6229.531930
node1808-32-026825765,0.000000,0.000000,0.000000,0.000000,-3576.906856,6229.510938
node1808-0076825767,0.000000,0.000000,0.000000,0.000000,-3577.168481,6230.465917
node1808-0074825769,0.000000,0.000000,0.000000,0.000000,-3577.274660,6230.881841
node1808-0072825771,0.000000,0.000000,0.000000,0.000000,-3577.372066,6231.263406
node1808-0070825773,0.000000,0.000000,0.000000,0.000000,-3577.470891,6231.650523
node1808-0068825775,0.000000,0.000000,0.000000,0.000000,-3577.578155,6232.070703
node825778825777,0.000000,0.000000,0.000000,0.000000,-3577.689624,6232.510863
nodeF25084x1825778,0.000000,0.000000,0.000000,0.000000,-3577.687442,6232.508224
node825779F25084x1,0.000000,0.000000,0.000000,0.000000,-3577.687447,6232.508218
node825780825779,0.000000,0.000000,0.000000,0.000000,-3577.676148,6232.492720
node825783825780,0.000000,0.000000,0.000000,0.000000,-3577.671935,6232.486940
node1808-30-007825783,0.000000,0.000000,0.000000,0.000000,-3577.671935,6232.486940
node825788825787,0.000000,0.000000,0.000000,0.000000,-3577.650942,6232.458144
node825789825788,0.000000,0.000000,0.000000,0.000000,-3577.647475,6232.453387
node825791825789,0.000000,0.000000,0.000000,0.000000,-3577.639458,6232.442390
node825792825791,0.000000,0.000000,0.000000,0.000000,-3577.629500,6232.428731
node1808-30-013825792,0.000000,0.000000,0.000000,0.000000,-3577.622831,6232.420664
node824892957807,7146.652681,-28.108247,-3617.739863,-6194.751212,-3575.671764,6233.522413
node824894824892,7136.441098,-31.225875,-3618.637950,-6186.756027,-3572.705744,6230.822192
node824899824894,7132.616791,-32.513436,-3619.264325,-6184.236917,-3572.036653,6229.701566
node824900824899,7126.628287,-30.308294,-3614.972680,-6180.392032,-3571.405980,6225.862250
node824901824900,7121.183408,-28.303329,-3611.070623,-6176.896178,-3570.832559,6222.371460
nodeREG14824901,7116.640256,-26.630408,-3607.814785,-6173.979273,-3570.354102,6219.458780
node825184REG14,7161.117995,-26.796157,0.000000,0.000000,0.000000,0.000000
nodeR7233x1825184,7160.184541,-26.737694,0.000000,0.000000,0.000000,0.000000
node825185R7233x1,7160.184254,-26.736717,0.000000,0.000000,0.000000,0.000000
node825186825185,7158.765984,-26.647890,0.000000,0.000000,0.000000,0.000000
node825187825186,7156.093529,-26.609201,0.000000,0.000000,0.000000,0.000000
node825189825187,7150.272941,-26.524936,0.000000,0.000000,0.000000,0.000000
node937615825189,7139.558277,-26.368651,0.000000,0.000000,0.000000,0.000000
node825206937615,7135.695814,-26.312313,0.000000,0.000000,0.000000,0.000000
node825208825206,7133.345513,-26.418229,0.000000,0.000000,0.000000,0.000000
node825209825208,7132.855390,-26.213331,0.000000,0.000000,0.000000,0.000000
node825210825209,7129.274647,-24.710997,0.000000,0.000000,0.000000,0.000000
node1707-0181825210,7129.269046,-24.709412,0.000000,0.000000,0.000000,0.000000
node825215825212,7126.100722,-23.375043,0.000000,0.000000,0.000000,0.000000
node825216825215,7113.640599,-22.545480,0.000000,0.000000,0.000000,0.000000
node825217825216,7108.259006,-22.425453,0.000000,0.000000,0.000000,0.000000
node825218825217,7106.022079,-22.375563,0.000000,0.000000,0.000000,0.000000
node825219825218,7105.547036,-22.347473,0.000000,0.000000,0.000000,0.000000
node923898825219,7103.588778,-22.231677,0.000000,0.000000,0.000000,0.000000
nodeFCMA4-F027x1923898,7102.374723,-22.234036,0.000000,0.000000,0.000000,0.000000
node825220FCMA4-F027x1,7102.374664,-22.233799,0.000000,0.000000,0.000000,0.000000
node825221825220,7101.679676,-21.907407,0.000000,0.000000,0.000000,0.000000
node825222825221,7101.651159,-21.899348,0.000000,0.000000,0.000000,0.000000
node825223825222,7101.616443,-21.889537,0.000000,0.000000,0.000000,0.000000
node1707-0074825223,7101.602510,-21.885599,0.000000,0.000000,0.000000,0.000000
node1707-0223825225,7101.661284,-21.902208,0.000000,0.000000,0.000000,0.000000
nodeT12388955235,7101.665923,-21.900698,0.000000,0.000000,0.000000,0.000000
node825229825227,7103.350619,-22.349825,0.000000,0.000000,0.000000,0.000000
node825232825229,7100.789657,-22.322156,0.000000,0.000000,0.000000,0.000000
node825233825232,7097.961084,-22.290088,0.000000,0.000000,0.000000,0.000000
node825234825233,7093.928944,-22.233113,0.000000,0.000000,0.000000,0.000000
node825236825234,7091.822478,-22.202017,0.000000,0.000000,0.000000,0.000000
node925840825236,7089.716013,-22.170922,0.000000,0.000000,0.000000,0.000000
node825237925840,7087.696114,-22.141105,0.000000,0.000000,0.000000,0.000000
node925845825237,7085.705071,-22.111713,0.000000,0.000000,0.000000,0.000000
node825265925845,7083.714029,-22.082322,0.000000,0.000000,0.000000,0.000000
nodeFCMA4-F028x1825265,7083.714015,-22.082319,0.000000,0.000000,0.000000,0.000000
node825266FCMA4-F028x1,7083.714015,-22.082319,0.000000,0.000000,0.000000,0.000000
node1707-0038825266,7083.713717,-22.082251,0.000000,0.000000,0.000000,0.000000
node925841914183,7081.695082,-22.052404,0.000000,0.000000,0.000000,0.000000
node925842925841,7079.647294,-22.022058,0.000000,0.000000,0.000000,0.000000
node925843925842,7077.339927,-21.987865,0.000000,0.000000,0.000000,0.000000
node925844925843,7075.032560,-21.953673,0.000000,0.000000,0.000000,0.000000
node825239925844,7073.013613,-21.923754,0.000000,0.000000,0.000000,0.000000
node825240825239,7070.279008,-21.882580,0.000000,0.000000,0.000000,0.000000
node825241825240,7068.595556,-21.855438,0.000000,0.000000,0.000000,0.000000
nodeF18633x1825241,7068.594573,-21.855214,0.000000,0.000000,0.000000,0.000000
node825242F18633x1,7068.594569,-21.855204,0.000000,0.000000,0.000000,0.000000
node919704825242,7068.554666,-21.846099,0.000000,0.000000,0.000000,0.000000
node825244919704,7068.545581,-21.844028,0.000000,0.000000,0.000000,0.000000
nodeT7736825244,7068.543397,-21.843530,0.000000,0.000000,0.000000,0.000000
nodeT4265919705,7068.552780,-21.845567,0.000000,0.000000,0.000000,0.000000
node825248825246,7064.222341,-21.244036,0.000000,0.000000,0.000000,0.000000
node825250825248,7059.412753,-20.566949,0.000000,0.000000,0.000000,0.000000
node825251825250,7051.956132,-19.515245,0.000000,0.000000,0.000000,0.000000
node910117825251,7048.858036,-19.077564,0.000000,0.000000,0.000000,0.000000
node825252910117,7041.469943,-18.015494,0.000000,0.000000,0.000000,0.000000
node1707-13-016825252,7041.448287,-18.015783,0.000000,0.000000,0.000000,0.000000
node825255825254,7034.797273,-17.049078,0.000000,0.000000,0.000000,0.000000
nodeFCMA4-F097x1825255,7034.793872,-17.048119,0.000000,0.000000,0.000000,0.000000
node825256FCMA4-F097x1,7034.793869,-17.048112,0.000000,0.000000,0.000000,0.000000
node1707-0190825256,7034.780288,-17.044286,0.000000,0.000000,0.000000,0.000000
node956631825258,7033.200567,-16.815234,0.000000,0.000000,0.000000,0.000000
node825259956631,7032.535597,-16.731163,0.000000,0.000000,0.000000,0.000000
node825261825259,7026.815921,-16.008032,0.000000,0.000000,0.000000,0.000000
node913783825261,7022.848193,-15.500302,0.000000,0.000000,0.000000,0.000000
node955225913783,7020.536360,-15.204469,0.000000,0.000000,0.000000,0.000000
node913784955225,7020.536360,-15.204469,0.000000,0.000000,0.000000,0.000000
node913826913784,7020.536360,-15.204469,0.000000,0.000000,0.000000,0.000000
node7651x2-B913826,7020.536360,-15.204469,0.000000,0.000000,0.000000,0.000000
nodeF12396x1955226,7020.486334,-15.184114,0.000000,0.000000,0.000000,0.000000
node955227F12396x1,7020.486220,-15.183735,0.000000,0.000000,0.000000,0.000000
nodeT12395955227,7018.885406,-14.532401,0.000000,0.000000,0.000000,0.000000
nodeF19034x1956634,7033.183057,-16.807005,0.000000,0.000000,0.000000,0.000000
node956635F19034x1,7033.183003,-16.806784,0.000000,0.000000,0.000000,0.000000
nodeT19033956635,7033.147984,-16.790326,0.000000,0.000000,0.000000,0.000000
nodeF1707-13-404x1910118,7048.857790,-19.077495,0.000000,0.000000,0.000000,0.000000
node910120F1707-13-404x1,7048.857788,-19.077489,0.000000,0.000000,0.000000,0.000000
node1707-0259910120,7048.843455,-19.073453,0.000000,0.000000,0.000000,0.000000
node924725924724,7048.857112,-19.077304,0.000000,0.000000,0.000000,0.000000
node924726924725,7048.854648,-19.076610,0.000000,0.000000,0.000000,0.000000
nodeT11878924726,7048.834525,-19.070942,0.000000,0.000000,0.000000,0.000000
nodeF11931x1929175,7051.956093,-19.515234,0.000000,0.000000,0.000000,0.000000
node929176F11931x1,7051.956092,-19.515233,0.000000,0.000000,0.000000,0.000000
node929178929176,7051.955781,-19.515146,0.000000,0.000000,0.000000,0.000000
nodeT11933929178,7051.953193,-19.514418,0.000000,0.000000,0.000000,0.000000
nodeF18634x1825268,7097.956989,-22.288926,0.000000,0.000000,0.000000,0.000000
node825269F18634x1,7097.956982,-22.288911,0.000000,0.000000,0.000000,0.000000
nodeT4331825269,7097.945296,-22.285594,0.000000,0.000000,0.000000,0.000000
nodeF2630x1910124,7103.349794,-22.349592,0.000000,0.000000,0.000000,0.000000
node910126F2630x1,7103.349791,-22.349586,0.000000,0.000000,0.000000,0.000000
nodeT2631910126,7103.340188,-22.346875,0.000000,0.000000,0.000000,0.000000
node1707-01-007825271,7113.459127,-22.554419,0.000000,0.000000,0.000000,0.000000
node1707-0234825273,7113.631764,-22.542984,0.000000,0.000000,0.000000,0.000000
node937636937635,7132.843070,-26.209848,0.000000,0.000000,0.000000,0.000000
node937637937636,7132.818569,-26.202922,0.000000,0.000000,0.000000,0.000000
nodeT15856937637,7132.811921,-26.201041,0.000000,0.000000,0.000000,0.000000
node937676937675,7132.812531,-26.201217,0.000000,0.000000,0.000000,0.000000
nodeT15884937676,7132.812531,-26.201217,0.000000,0.000000,0.000000,0.000000
node937597937596,7135.693655,-26.312436,0.000000,0.000000,0.000000,0.000000
node937600937597,7135.690320,-26.311494,0.000000,0.000000,0.000000,0.000000
nodeT15861937600,7135.682858,-26.311919,0.000000,0.000000,0.000000,0.000000
node937757937755,7135.678622,-26.308190,0.000000,0.000000,0.000000,0.000000
nodeT15860937757,7135.674218,-26.306946,0.000000,0.000000,0.000000,0.000000
node825276825275,7158.765984,-26.647890,0.000000,0.000000,0.000000,0.000000
node1808-31-003825276,7158.765984,-26.647890,0.000000,0.000000,0.000000,0.000000
nodeR7232x1824902,0.000000,0.000000,-3607.701822,-6173.869734,0.000000,0.000000
node824903R7232x1,0.000000,0.000000,-3607.701283,-6173.869799,0.000000,0.000000
node824904824903,0.000000,0.000000,-3605.860637,-6172.084954,0.000000,0.000000
node824905824904,0.000000,0.000000,-3605.272727,-6171.514882,0.000000,0.000000
node824907824905,0.000000,0.000000,-3604.706149,-6170.396434,0.000000,0.000000
node824908824907,0.000000,0.000000,-3604.506847,-6169.953325,0.000000,0.000000
node824909824908,0.000000,0.000000,-3604.133610,-6169.123502,0.000000,0.000000
node824910824909,0.000000,0.000000,-3603.470585,-6167.649459,0.000000,0.000000
node980820824910,0.000000,0.000000,-3601.334819,-6162.901222,0.000000,0.000000
node824914980820,0.000000,0.000000,-3600.904782,-6161.945169,0.000000,0.000000
node824915824914,0.000000,0.000000,-3600.133978,-6160.231556,0.000000,0.000000
node824916824915,0.000000,0.000000,-3599.429592,-6158.665601,0.000000,0.000000
node824917824916,0.000000,0.000000,-3598.733184,-6157.117417,0.000000,0.000000
node906987824917,0.000000,0.000000,-3598.327091,-6156.214630,0.000000,0.000000
node824918906987,0.000000,0.000000,-3597.869212,-6155.196743,0.000000,0.000000
node1708-05-001824918,0.000000,0.000000,-3597.849954,-6155.145519,0.000000,0.000000
node824921824920,0.000000,0.000000,-3596.166853,-6151.412386,0.000000,0.000000
node824922824921,0.000000,0.000000,-3593.086888,-6144.565721,0.000000,0.000000
node824923824922,0.000000,0.000000,-3591.913611,-6141.957571,0.000000,0.000000
node982179824923,0.000000,0.000000,-3591.073913,-6140.090954,0.000000,0.000000
node824924982179,0.000000,0.000000,-3590.942453,-6139.798724,0.000000,0.000000
node824925824924,0.000000,0.000000,-3590.543139,-6138.911117,0.000000,0.000000
node824926824925,0.000000,0.000000,-3590.518971,-6138.857339,0.000000,0.000000
node824927824926,0.000000,0.000000,-3590.479175,-6138.768782,0.000000,0.000000
node1708-05-008824927,0.000000,0.000000,-3590.463696,-6138.727595,0.000000,0.000000
node824930824929,0.000000,0.000000,-3590.443772,-6138.690005,0.000000,0.000000
node824931824930,0.000000,0.000000,-3590.368612,-6138.522748,0.000000,0.000000
node1708-04-001824931,0.000000,0.000000,-3590.333055,-6138.428145,0.000000,0.000000
node824934824933,0.000000,0.000000,-3590.343397,-6138.466626,0.000000,0.000000
node824935824934,0.000000,0.000000,-3590.318619,-6138.411479,0.000000,0.000000
node1708-05-012824935,0.000000,0.000000,-3590.309620,-6138.387532,0.000000,0.000000
nodeFCMA4-F034x1824937,0.000000,0.000000,-3590.342927,-6138.466170,0.000000,0.000000
node824938FCMA4-F034x1,0.000000,0.000000,-3590.342924,-6138.466170,0.000000,0.000000
nodeT14400824938,0.000000,0.000000,-3590.339973,-6138.463307,0.000000,0.000000
node824942824941,0.000000,0.000000,-3588.744540,-6134.913581,0.000000,0.000000
node824943824942,0.000000,0.000000,-3588.652410,-6134.708818,0.000000,0.000000
nodeF18635x1824943,0.000000,0.000000,-3588.649699,-6134.706188,0.000000,0.000000
node824944F18635x1,0.000000,0.000000,-3588.649687,-6134.706190,0.000000,0.000000
node824945824944,0.000000,0.000000,-3588.620640,-6134.678009,0.000000,0.000000
node824946824945,0.000000,0.000000,-3588.595317,-6134.653441,0.000000,0.000000
node1708-0024824946,0.000000,0.000000,-3588.589995,-6134.642927,0.000000,0.000000
node824952824951,0.000000,0.000000,-3588.358710,-6134.056080,0.000000,0.000000
node824953824952,0.000000,0.000000,-3587.585888,-6132.338506,0.000000,0.000000
node824954824953,0.000000,0.000000,-3587.336852,-6131.785032,0.000000,0.000000
node824956824954,0.000000,0.000000,-3587.194740,-6131.469191,0.000000,0.000000
node824957824956,0.000000,0.000000,-3586.526835,-6129.984809,0.000000,0.000000
node824958824957,0.000000,0.000000,-3586.141918,-6129.129352,0.000000,0.000000
node824959824958,0.000000,0.000000,-3585.908554,-6128.610713,0.000000,0.000000
node824960824959,0.000000,0.000000,-3584.055667,-6124.492816,0.000000,0.000000
node824961824960,0.000000,0.000000,-3583.707670,-6123.719419,0.000000,0.000000
node824962824961,0.000000,0.000000,-3583.402176,-6123.040482,0.000000,0.000000
nodeF5401x1824962,0.000000,0.000000,-3583.398141,-6123.036570,0.000000,0.000000
node824963F5401x1,0.000000,0.000000,-3583.398121,-6123.036572,0.000000,0.000000
node1708-0029824963,0.000000,0.000000,-3583.385256,-6123.024099,0.000000,0.000000
node824967824966,0.000000,0.000000,-3582.805929,-6121.715392,0.000000,0.000000
node824968824967,0.000000,0.000000,-3581.574357,-6118.978366,0.000000,0.000000
node1708-08-013824968,0.000000,0.000000,-3581.565809,-6118.955640,0.000000,0.000000
node824971824970,0.000000,0.000000,-3579.320255,-6113.968946,0.000000,0.000000
node7875x1-Bx1824971,0.000000,0.000000,-3578.837765,-6112.687011,0.000000,0.000000
node7875x1-Ax17875x1-Bx1,0.000000,0.000000,-3578.837428,-6112.687053,0.000000,0.000000
node9270717875x1-Ax1,0.000000,0.000000,-3578.837090,-6112.687094,0.000000,0.000000
node824972927071,0.000000,0.000000,-3578.450268,-6111.827433,0.000000,0.000000
nodeR7659x1824972,0.000000,0.000000,-3578.377224,-6111.633366,0.000000,0.000000
node824973R7659x1,0.000000,0.000000,-3578.376909,-6111.633404,0.000000,0.000000
node914099824973,0.000000,0.000000,-3577.442255,-6109.556286,0.000000,0.000000
node920252914099,0.000000,0.000000,-3576.599445,-6107.317042,0.000000,0.000000
node920246920252,0.000000,0.000000,-3576.233496,-6106.962329,0.000000,0.000000
nodeF7694x1920246,0.000000,0.000000,-3576.227474,-6106.956492,0.000000,0.000000
node920245F7694x1,0.000000,0.000000,-3576.227449,-6106.956495,0.000000,0.000000
node825137920245,0.000000,0.000000,-3576.226727,-6106.955795,0.000000,0.000000
node825138825137,0.000000,0.000000,-3576.196421,-6106.888449,0.000000,0.000000
node1708-16-024825138,0.000000,0.000000,-3576.189249,-6106.869398,0.000000,0.000000
nodeF7304x1825140,0.000000,0.000000,-3576.193344,-6106.885467,0.000000,0.000000
node825141F7304x1,0.000000,0.000000,-3576.193328,-6106.885469,0.000000,0.000000
node1708-0042825141,0.000000,0.000000,-3576.143551,-6106.837221,0.000000,0.000000
node920248920247,0.000000,0.000000,-3574.798855,-6105.571729,0.000000,0.000000
nodeT5390920248,0.000000,0.000000,-3574.796131,-6105.569089,0.000000,0.000000
node920250920249,0.000000,0.000000,-3573.906124,-6104.706408,0.000000,0.000000
node825108920250,0.000000,0.000000,-3573.864278,-6104.665846,0.000000,0.000000
node825107825108,0.000000,0.000000,-3573.357962,-6103.540693,0.000000,0.000000
node825106825107,0.000000,0.000000,-3573.177198,-6103.138992,0.000000,0.000000
node824977825106,0.000000,0.000000,-3573.084101,-6102.932108,0.000000,0.000000
node824978824977,0.000000,0.000000,-3572.927577,-6102.584275,0.000000,0.000000
node824982824978,0.000000,0.000000,-3572.716598,-6102.115442,0.000000,0.000000
node824983824982,0.000000,0.000000,-3572.562022,-6101.771941,0.000000,0.000000
node824984824983,0.000000,0.000000,-3572.376100,-6101.358783,0.000000,0.000000
node824985824984,0.000000,0.000000,-3572.247083,-6101.072088,0.000000,0.000000
node824986824985,0.000000,0.000000,-3572.238720,-6101.053501,0.000000,0.000000
node824987824986,0.000000,0.000000,-3572.199053,-6100.965328,0.000000,0.000000
node914884824987,0.000000,0.000000,-3572.195894,-6100.956932,0.000000,0.000000
nodeF7669x1914884,0.000000,0.000000,-3572.194777,-6100.955850,0.000000,0.000000
node914887F7669x1,0.000000,0.000000,-3572.194774,-6100.955850,0.000000,0.000000
nodeT4063914887,0.000000,0.000000,-3572.191606,-6100.952778,0.000000,0.000000
nodeF7306x1824989,0.000000,0.000000,-3572.197598,-6100.963919,0.000000,0.000000
node824990F7306x1,0.000000,0.000000,-3572.197591,-6100.963920,0.000000,0.000000
node1708-0022824990,0.000000,0.000000,-3572.188404,-6100.955014,0.000000,0.000000
node824993824992,0.000000,0.000000,-3572.182961,-6100.929603,0.000000,0.000000
node824994824993,0.000000,0.000000,-3571.936338,-6100.381580,0.000000,0.000000
node824995824994,0.000000,0.000000,-3571.814041,-6100.109823,0.000000,0.000000
node1708-09-012824995,0.000000,0.000000,-3571.811020,-6100.101796,0.000000,0.000000
node824999824998,0.000000,0.000000,-3571.619789,-6099.678181,0.000000,0.000000
node825000824999,0.000000,0.000000,-3571.289971,-6098.945357,0.000000,0.000000
nodeF7307x1825000,0.000000,0.000000,-3571.286281,-6098.941780,0.000000,0.000000
node825001F7307x1,0.000000,0.000000,-3571.286266,-6098.941782,0.000000,0.000000
node931436825001,0.000000,0.000000,-3571.281004,-6098.936683,0.000000,0.000000
node1708-10-002931436,0.000000,0.000000,-3571.267105,-6098.923213,0.000000,0.000000
node825005825003,0.000000,0.000000,-3571.196341,-6098.737328,0.000000,0.000000
node825007825005,0.000000,0.000000,-3571.029470,-6098.366572,0.000000,0.000000
node825008825007,0.000000,0.000000,-3570.965052,-6098.223452,0.000000,0.000000
node825009825008,0.000000,0.000000,-3570.930547,-6098.146797,0.000000,0.000000
nodeF7309x1825009,0.000000,0.000000,-3570.928419,-6098.144735,0.000000,0.000000
node825010F7309x1,0.000000,0.000000,-3570.928404,-6098.144737,0.000000,0.000000
node825011825010,0.000000,0.000000,-3570.924367,-6098.140825,0.000000,0.000000
node1708-0034825011,0.000000,0.000000,-3570.914275,-6098.131045,0.000000,0.000000
node1708-15-003825015,0.000000,0.000000,-3570.913571,-6098.101706,0.000000,0.000000
node825025825024,0.000000,0.000000,-3571.281564,-6098.926677,0.000000,0.000000
node825027825025,0.000000,0.000000,-3571.242949,-6098.824102,0.000000,0.000000
nodeF7308x1825027,0.000000,0.000000,-3571.241077,-6098.822287,0.000000,0.000000
node944543F7308x1,0.000000,0.000000,-3571.241039,-6098.822292,0.000000,0.000000
node919955944543,0.000000,0.000000,-3571.112066,-6098.697294,0.000000,0.000000
node907740919955,0.000000,0.000000,-3571.110621,-6098.695893,0.000000,0.000000
nodeT5162907740,0.000000,0.000000,-3571.065346,-6098.652011,0.000000,0.000000
nodeT3999919956,0.000000,0.000000,-3571.106954,-6098.692338,0.000000,0.000000
node825032825031,0.000000,0.000000,-3571.583153,-6099.596755,0.000000,0.000000
node825033825032,0.000000,0.000000,-3571.553973,-6099.531903,0.000000,0.000000
node1708-09-017825033,0.000000,0.000000,-3571.548182,-6099.516517,0.000000,0.000000
node825045825041,0.000000,0.000000,-3571.545708,-6099.513532,0.000000,0.000000
node825046825045,0.000000,0.000000,-3571.525786,-6099.469254,0.000000,0.000000
node825047825046,0.000000,0.000000,-3571.516801,-6099.449285,0.000000,0.000000
node825048825047,0.000000,0.000000,-3571.508910,-6099.431745,0.000000,0.000000
node1708-09-026825048,0.000000,0.000000,-3571.507176,-6099.427138,0.000000,0.000000
node825113825112,0.000000,0.000000,-3573.826232,-6104.581279,0.000000,0.000000
node825114825113,0.000000,0.000000,-3573.798373,-6104.519347,0.000000,0.000000
node825115825114,0.000000,0.000000,-3573.794606,-6104.510973,0.000000,0.000000
nodeF7305x1825115,0.000000,0.000000,-3573.793539,-6104.509938,0.000000,0.000000
node825116F7305x1,0.000000,0.000000,-3573.793516,-6104.509941,0.000000,0.000000
node825117825116,0.000000,0.000000,-3573.785987,-6104.502642,0.000000,0.000000
node825119825117,0.000000,0.000000,-3573.768359,-6104.485552,0.000000,0.000000
node1708-0043825119,0.000000,0.000000,-3573.739449,-6104.457524,0.000000,0.000000
node825125825124,0.000000,0.000000,-3573.787771,-6104.495776,0.000000,0.000000
node975302825125,0.000000,0.000000,-3573.780886,-6104.477476,0.000000,0.000000
nodeF21729x1975302,0.000000,0.000000,-3573.780724,-6104.477318,0.000000,0.000000
node975303F21729x1,0.000000,0.000000,-3573.780717,-6104.477319,0.000000,0.000000
nodeT28838975303,0.000000,0.000000,-3573.777855,-6104.474543,0.000000,0.000000
node825144825143,0.000000,0.000000,-3578.404656,-6111.726049,0.000000,0.000000
node825145825144,0.000000,0.000000,-3578.380349,-6111.672032,0.000000,0.000000
node1708-17-020825145,0.000000,0.000000,-3578.368286,-6111.639985,0.000000,0.000000
node25123x1-B825147,0.000000,0.000000,-3578.380349,-6111.672032,0.000000,0.000000
nodeF7303x1825148,0.000000,0.000000,-3578.402939,-6111.724384,0.000000,0.000000
node957165F7303x1,0.000000,0.000000,-3578.402927,-6111.724386,0.000000,0.000000
node957166957165,0.000000,0.000000,-3578.397434,-6111.719059,0.000000,0.000000
node825150957166,0.000000,0.000000,-3578.388493,-6111.710391,0.000000,0.000000
node1708-0036825150,0.000000,0.000000,-3578.385354,-6111.707347,0.000000,0.000000
node1708-0037825152,0.000000,0.000000,-3578.388144,-6111.710052,0.000000,0.000000
nodeF21810x1982181,0.000000,0.000000,-3590.940111,-6139.796452,0.000000,0.000000
node982180F21810x1,0.000000,0.000000,-3590.940087,-6139.796455,0.000000,0.000000
node954396982180,0.000000,0.000000,-3590.909639,-6139.766910,0.000000,0.000000
node954395954396,0.000000,0.000000,-3590.855009,-6139.713902,0.000000,0.000000
node980334954395,0.000000,0.000000,-3590.813760,-6139.673880,0.000000,0.000000
nodeT21005980334,0.000000,0.000000,-3590.810649,-6139.670860,0.000000,0.000000
nodeT29051980337,0.000000,0.000000,-3590.777943,-6139.639129,0.000000,0.000000
nodeT28295980862,0.000000,0.000000,-3590.854637,-6139.713541,0.000000,0.000000
nodeFCMA4-F032x1825162,0.000000,0.000000,-3591.913611,-6141.957571,0.000000,0.000000
node825163FCMA4-F032x1,0.000000,0.000000,-3591.913611,-6141.957571,0.000000,0.000000
nodeT7814825163,0.000000,0.000000,-3591.913611,-6141.957571,0.000000,0.000000
nodeFCMA4-F031x1825166,0.000000,0.000000,-3593.086721,-6144.565392,0.000000,0.000000
node825167FCMA4-F031x1,0.000000,0.000000,-3593.086720,-6144.565392,0.000000,0.000000
node1708-05-018825167,0.000000,0.000000,-3593.085537,-6144.563052,0.000000,0.000000
node979836979835,0.000000,0.000000,-3596.162155,-6151.401924,0.000000,0.000000
node979833979836,0.000000,0.000000,-3596.157752,-6151.392116,0.000000,0.000000
node825169979833,0.000000,0.000000,-3596.153348,-6151.382308,0.000000,0.000000
node979834825169,0.000000,0.000000,-3596.148944,-6151.372500,0.000000,0.000000
node825170979834,0.000000,0.000000,-3596.144541,-6151.362691,0.000000,0.000000
node910130825170,0.000000,0.000000,-3596.141219,-6151.353843,0.000000,0.000000
nodeF2589x1910130,0.000000,0.000000,-3596.140666,-6151.353306,0.000000,0.000000
node910132F2589x1,0.000000,0.000000,-3596.140662,-6151.353307,0.000000,0.000000
node933215910132,0.000000,0.000000,-3596.140210,-6151.352868,0.000000,0.000000
nodeT2590933215,0.000000,0.000000,-3596.137676,-6151.350408,0.000000,0.000000
node933217945015,0.000000,0.000000,-3596.132752,-6151.345627,0.000000,0.000000
node933218933217,0.000000,0.000000,-3596.124228,-6151.337351,0.000000,0.000000
nodeT11961933218,0.000000,0.000000,-3596.118740,-6151.332023,0.000000,0.000000
nodeF18636x1825171,0.000000,0.000000,-3596.144452,-6151.362605,0.000000,0.000000
node825172F18636x1,0.000000,0.000000,-3596.144451,-6151.362605,0.000000,0.000000
node1708-0039825172,0.000000,0.000000,-3596.142980,-6151.361177,0.000000,0.000000
nodeF5137x1906988,0.000000,0.000000,-3598.326692,-6156.214243,0.000000,0.000000
node906989F5137x1,0.000000,0.000000,-3598.326687,-6156.214244,0.000000,0.000000
nodeT4307906989,0.000000,0.000000,-3598.316978,-6156.204817,0.000000,0.000000
nodeFCMA4-F113x1825174,0.000000,0.000000,-3599.428480,-6158.664521,0.000000,0.000000
node825175FCMA4-F113x1,0.000000,0.000000,-3599.428474,-6158.664521,0.000000,0.000000
node1708-0040825175,0.000000,0.000000,-3599.422789,-6158.659001,0.000000,0.000000
node825181825180,0.000000,0.000000,-3605.264043,-6171.497708,0.000000,0.000000
nodeT7835825181,0.000000,0.000000,-3605.264043,-6171.497708,0.000000,0.000000
nodeT11814919020,0.000000,0.000000,-3605.272605,-6171.514764,0.000000,0.000000
nodeT11894924869,0.000000,0.000000,-3605.848883,-6172.073537,0.000000,0.000000
node825279825278,7113.747977,-25.530771,-3605.130933,-6171.711632,-3569.867242,6216.432558
node825280825279,7110.489612,-24.267271,-3602.046127,-6169.126054,-3569.340899,6213.013031
node825281825280,7107.054072,-22.944577,-3598.783035,-6166.374823,-3568.778139,6209.413265
node825282825281,7103.471872,-21.566888,-3595.354658,-6163.475896,-3568.190667,6205.661955
node825283825282,7100.081163,-20.262593,-3592.147176,-6160.772942,-3567.634771,6202.111642
node825285825283,7100.038306,-20.245579,-3592.105295,-6160.738085,-3567.628221,6202.066555
node825286825285,7099.100779,-19.873336,-3591.196369,-6159.983473,-3567.484970,6201.080332
node825287825286,7096.943124,-18.999060,-3589.059281,-6158.223006,-3567.171190,6198.803705
node825288825287,7095.965738,-18.603026,-3588.091211,-6157.425541,-3567.029052,6197.772426
node974667825288,7095.238288,-18.306433,-3587.360810,-6156.823882,-3566.921831,6196.994261
node825289974667,7095.019473,-18.205670,-3587.128921,-6156.648973,-3566.898854,6196.753747
node825290825289,7092.510442,-17.180859,-3584.885938,-6154.875195,-3566.531469,6194.076941
node825291825290,7090.740212,-16.457668,-3583.324783,-6153.647028,-3566.272360,6192.188604
nodeR7860x1825291,7088.526630,-15.553355,-3581.372639,-6152.111268,-3565.948357,6189.827336
node825292R7860x1,7088.526405,-15.552395,-3581.371660,-6152.111557,-3565.949069,6189.826665
node825496825292,7088.494623,-15.539412,-3581.343632,-6152.089508,-3565.944417,6189.792763
nodeF7675x1825496,0.000000,0.000000,-3581.338391,-6152.084401,0.000000,0.000000
node825497F7675x1,0.000000,0.000000,-3581.338374,-6152.084403,0.000000,0.000000
node825498825497,0.000000,0.000000,-3581.311572,-6152.058288,0.000000,0.000000
node825499825498,0.000000,0.000000,-3581.267641,-6152.015482,0.000000,0.000000
nodeT7674825499,0.000000,0.000000,-3581.253023,-6152.001238,0.000000,0.000000
node825502825501,0.000000,0.000000,-3581.267442,-6152.015288,0.000000,0.000000
node1707-0079825502,0.000000,0.000000,-3581.267101,-6152.014956,0.000000,0.000000
node825505825504,0.000000,0.000000,-3581.267442,-6152.015288,0.000000,0.000000
node1707-0233825505,0.000000,0.000000,-3581.267442,-6152.015288,0.000000,0.000000
node1707-0231825507,0.000000,0.000000,-3581.264096,-6152.012028,0.000000,0.000000
node923929926414,7086.527138,-14.727190,-3579.624429,-6150.753784,-3565.663635,6187.690070
node825490923929,7086.431030,-14.680802,-3579.536612,-6150.693686,-3565.654477,6187.579914
nodeF10258x1825490,0.000000,0.000000,0.000000,0.000000,-3565.654390,6187.579576
node970367F10258x1,0.000000,0.000000,0.000000,0.000000,-3565.654393,6187.579572
node825491970367,0.000000,0.000000,0.000000,0.000000,-3565.644068,6187.563935
nodeT10259825491,0.000000,0.000000,0.000000,0.000000,-3565.609599,6187.511729
nodeT28684970368,0.000000,0.000000,0.000000,0.000000,-3565.644068,6187.563935
node928145923930,7085.874566,-14.412119,-3579.027780,-6150.345564,-3565.607690,6186.965365
nodeT18015928145,7085.349987,-14.145695,-3578.536735,-6150.023915,-3565.574919,6186.379454
nodeT10261923937,0.000000,0.000000,0.000000,0.000000,-3565.662810,6187.686859
node825298923940,7085.725628,-14.398471,-3578.923429,-6150.205883,-3565.550556,6186.844575
nodeT10263825298,7085.664732,-14.363623,-3578.863033,-6150.170490,-3565.550135,6186.774596
node915123923941,0.000000,0.000000,-3578.908083,-6150.190928,0.000000,0.000000
nodeT5274915123,0.000000,0.000000,-3578.900723,-6150.183756,0.000000,0.000000
node923943923942,7083.401113,-13.455170,-3576.931063,-6148.646452,-3565.214261,6184.399156
nodeT10266923943,0.000000,0.000000,0.000000,0.000000,-3565.205601,6184.365467
nodeT10268923946,0.000000,0.000000,-3576.931063,-6148.646452,0.000000,0.000000
nodeT10267923950,7083.397338,-13.453269,-3576.927543,-6148.644130,-3565.214012,6184.394948
node825312923952,7081.530136,-12.700506,-3575.330158,-6147.387946,-3564.954567,6182.480309
node825313825312,7080.964827,-12.398005,-3574.787987,-6147.049198,-3564.925487,6181.814531
node825314825313,7080.526146,-12.166613,-3574.370281,-6146.784754,-3564.897416,6181.289660
nodeT10274825314,7080.495579,-12.152086,-3574.342530,-6146.765516,-3564.894646,6181.256018
node928120928118,7080.393829,-12.078545,-3574.228776,-6146.714281,-3564.898263,6181.097790
nodeT12199928120,7080.268011,-11.994622,-3574.093673,-6146.647077,-3564.907677,6180.947238
node928768928122,0.000000,0.000000,0.000000,0.000000,-3564.896357,6181.090386
nodeT14052928768,0.000000,0.000000,0.000000,0.000000,-3564.896094,6181.089365
nodeT10272825316,7080.937902,-12.383167,-3574.761777,-6147.033266,-3564.924808,6181.783877
nodeT10270923953,7081.509775,-12.689689,-3575.310686,-6147.375697,-3564.953705,6182.457328
node825485923955,7080.244716,-12.220222,-3574.258940,-6146.499613,-3564.755401,6181.219712
nodeT10276825485,7080.222620,-12.213984,0.000000,0.000000,0.000000,0.000000
nodeT10277923956,7079.967312,-12.096724,-3574.014317,-6146.320883,-3564.723071,6180.918593
node923959923958,0.000000,0.000000,0.000000,0.000000,-3564.751639,6181.205092
nodeT10279923959,0.000000,0.000000,0.000000,0.000000,-3564.746416,6181.184792
node923962923961,7079.544446,-11.956458,-3573.651436,-6145.992829,-3564.649778,6180.534756
nodeT10281923962,0.000000,0.000000,0.000000,0.000000,-3564.648889,6180.531300
node923966923963,7079.462413,-11.924240,-3573.593941,-6145.950264,-3564.641695,6180.464009
nodeT10285923966,7079.461157,-11.923911,-3573.593032,-6145.949340,-3564.641349,6180.462760
nodeF10284x1923967,7079.449687,-11.918530,-3573.584585,-6145.943975,-3564.640943,6180.452802
node950143F10284x1,7079.449654,-11.918397,-3573.584481,-6145.944010,-3564.641024,6180.452729
node825341950143,7076.722941,-11.410559,-3572.267300,-6144.422168,-3564.059117,6178.491871
nodeT18079825341,7076.720766,-11.409949,0.000000,0.000000,0.000000,0.000000
node924255950144,7074.618174,-10.911707,-3570.833268,-6142.901244,-3563.373034,6176.522281
node825345924255,7074.588462,-10.903406,-3570.811970,-6142.880382,-3563.364373,6176.493823
node1707-0091825345,7074.358630,-10.839198,-3570.647227,-6142.719007,-3563.297373,6176.273696
nodeT14424928282,7074.319464,-10.772364,-3570.564380,-6142.711971,-3563.343718,6176.194891
node7235x1-A923968,7079.462413,-11.924240,0.000000,0.000000,0.000000,0.000000
nodeT10286923970,7079.539232,-11.954996,0.000000,0.000000,0.000000,0.000000
node923973923972,7078.764787,-11.666940,-3572.898132,-6145.339031,-3564.522701,6179.754372
node910116923973,0.000000,0.000000,0.000000,0.000000,-3564.516232,6179.729235
nodeT2552910116,0.000000,0.000000,0.000000,0.000000,-3564.512366,6179.714214
nodeF10288x1923974,7078.719919,-11.645286,-3572.857111,-6145.310957,-3564.518923,6179.704828
node825449F10288x1,7078.719875,-11.645084,-3572.856916,-6145.311020,-3564.519074,6179.704691
node825450825449,7077.960605,-11.472982,-3572.346114,-6144.758474,-3564.265147,6178.998190
node825451825450,7076.165588,-11.081166,-3571.151122,-6143.444910,-3563.652590,6177.335746
node1707-0018825451,7076.148315,-11.076076,-3571.138518,-6143.432908,-3563.647769,6177.319064
node825455825453,7074.497614,-10.731242,-3570.052568,-6142.217476,-3563.071876,6175.798316
node825456825455,7074.162793,-10.593578,-3569.767176,-6141.996090,-3563.023032,6175.440591
node1707-0055825456,7073.741096,-10.420194,-3569.407733,-6141.717262,-3562.961515,6174.990048
node1707-0014825458,7077.945102,-11.467862,-3572.334339,-6144.747967,-3564.261267,6178.982931
node929691923975,7078.747827,-11.662161,0.000000,0.000000,0.000000,0.000000
nodeT11874929691,7078.707116,-11.650710,0.000000,0.000000,0.000000,0.000000
node923978923977,7078.756259,-11.666119,-3572.757471,-6145.184749,-3564.505067,6179.699614
nodeT10292923978,0.000000,0.000000,0.000000,0.000000,-3564.504256,6179.696467
nodeF10291x1923981,0.000000,0.000000,-3572.756271,-6145.183578,0.000000,0.000000
node825471F10291x1,0.000000,0.000000,-3572.756254,-6145.183580,0.000000,0.000000
node923982825471,0.000000,0.000000,-3572.731974,-6145.159900,0.000000,0.000000
node825472923982,0.000000,0.000000,-3572.712735,-6145.141135,0.000000,0.000000
nodeT10297825472,0.000000,0.000000,-3572.701548,-6145.130224,0.000000,0.000000
nodeT10293923984,7078.751170,-11.664691,0.000000,0.000000,0.000000,0.000000
node825474923987,0.000000,0.000000,-3572.755740,-6145.183061,0.000000,0.000000
node929439825474,0.000000,0.000000,-3572.749280,-6145.176760,0.000000,0.000000
node929440929439,0.000000,0.000000,-3572.747871,-6145.175385,0.000000,0.000000
nodeT14062929440,0.000000,0.000000,-3572.745467,-6145.173039,0.000000,0.000000
node923991923989,7078.756616,-11.667471,-3572.589522,-6145.000497,-3564.481671,6179.626746
node923993923991,7078.756945,-11.668723,-3572.434124,-6144.830014,-3564.460023,6179.559324
node925975923993,0.000000,0.000000,0.000000,0.000000,-3564.457752,6179.550502
nodeT7300925975,0.000000,0.000000,0.000000,0.000000,-3564.455585,6179.542084
nodeF10301x1923995,0.000000,0.000000,-3572.418946,-6144.815212,0.000000,0.000000
node923996F10301x1,0.000000,0.000000,-3572.418845,-6144.815224,0.000000,0.000000
node923998923996,0.000000,0.000000,-3572.412126,-6144.808672,0.000000,0.000000
node929726923998,0.000000,0.000000,-3572.140195,-6144.543474,0.000000,0.000000
nodeT10302929726,0.000000,0.000000,-3572.138544,-6144.541864,0.000000,0.000000
node929729929728,0.000000,0.000000,-3572.006546,-6144.413138,0.000000,0.000000
node929730929729,0.000000,0.000000,-3571.930055,-6144.338530,0.000000,0.000000
nodeT15710929730,0.000000,0.000000,-3571.923651,-6144.332282,0.000000,0.000000
node929733929732,0.000000,0.000000,-3571.851929,-6144.262328,0.000000,0.000000
node929734929733,0.000000,0.000000,-3571.691082,-6144.105443,0.000000,0.000000
nodeT2700929734,0.000000,0.000000,-3571.657868,-6144.073045,0.000000,0.000000
node929736929735,0.000000,0.000000,-3571.609266,-6144.025643,0.000000,0.000000
node929741929736,0.000000,0.000000,-3571.527958,-6143.946339,0.000000,0.000000
node929743929741,0.000000,0.000000,-3571.522049,-6143.940574,0.000000,0.000000
node929744929743,0.000000,0.000000,-3571.513117,-6143.931860,0.000000,0.000000
nodeT15718929744,0.000000,0.000000,-3571.504185,-6143.923145,0.000000,0.000000
nodeT15715929747,0.000000,0.000000,-3571.523849,-6143.942332,0.000000,0.000000
node929750929749,0.000000,0.000000,-3571.514015,-6143.932736,0.000000,0.000000
node929751929750,0.000000,0.000000,-3571.504661,-6143.923610,0.000000,0.000000
nodeT15721929751,0.000000,0.000000,-3571.496932,-6143.916070,0.000000,0.000000
...